Circuit: * C:\Users\Raul Alzate\Desktop\DriverCorriente\singleStage\main.asc

Error on line 874 : .model u1:bsim3 nmos (level=7 version=3.1 mobmod=3 capmod=2 paramchk=1 nqsmod=0  tox=1000e-10 xj=1.4e-6 nch=1.13e17  u0=700 vsat=1.0e5 drout=1.0  delta=0.1 pscbe2=0 rsh=1.09e-3  vth0=4.55 voff=-0.1 nfactor=1.1  lint=3.15e-7 dlc=3.15e-7 fc=0.5  cgso=1.00e-15 cgsl=0 cgdo=8.05e-15  cgdl=5.41e-10 cj=0 cf=0  ckappa=0.2 kt1=-1.45 kt2=0  ua1=-1.28e-9 nj=10)
	* Unrecognized parameter "fc" -- ignored
Warning: Pscbe2 = 0 is not positive.
Warning: Pd = 0 is less than W.
Warning: Ps = 0 is less than W.
Direct Newton iteration for .op point succeeded.

Date: Fri Sep 11 13:07:00 2020
Total elapsed time: 1.045 seconds.

tnom = 27
temp = 27
method = modified trap
totiter = 134528
traniter = 134516
tranpoints = 55981
accept = 39627
rejected = 16354
matrix size = 22
fillins = 13
solver = Normal
Matrix Compiler1: 2.08 KB object code size  0.7/0.4/[0.2]
Matrix Compiler2: 1.99 KB object code size  0.3/0.4/[0.3]

